Circuit: * G:\JCAP\Dev\Video\VGA\Hardware\R-2R_DAC.asc

WARNING: Less than two connections to node H.  This node is used by R§HSYNC.
WARNING: Less than two connections to node V.  This node is used by R§VSYNC.
Direct Newton iteration for .op point succeeded.

Date: Fri Oct 27 17:38:54 2017
Total elapsed time: 0.058 seconds.

tnom = 27
temp = 27
method = modified trap
totiter = 2091
traniter = 2088
tranpoints = 1045
accept = 1045
rejected = 0
matrix size = 21
fillins = 0
solver = Normal
Matrix Compiler1: 500 bytes object code size  0.1/0.0/[0.0]
Matrix Compiler2: off  [0.0]/0.1/0.1

